           8
                         coords for cp2k
C      5.74363507    4.95511760    5.14218254
H      6.11646637    5.51286341    4.16068870
H      6.37981970    3.95683673    4.91050401
H      5.97319930    5.34982929    6.18952092
C      4.18871382    5.04535288    5.00375214
H      3.93498852    5.30353438    3.92682131
H      3.94660593    3.92270782    5.45610440
H      3.81558994    6.09137376    5.09738782
 
